LAMMPS (12 Dec 2018)
# 3D LENNARD-JONES GAS #

units lj            # Lennard-Jones units
dimension 3
boundary p p p      # Periodic boundaries
atom_style atomic   # Simplest complexity of each particle

lattice fcc 0.01    # Face-centered-cubic shape of lattice, density scale
Lattice spacing in x,y,z = 7.36806 7.36806 7.36806
region simbox block 0 10 0 10 0 10 # Defines region of block
create_box 1 simbox # Creates box with 1 type of atoms
Created orthogonal box = (0 0 0) to (73.6806 73.6806 73.6806)
create_atoms 1 box  # Fills box with atoms
Created 4000 atoms
  Time spent = 0 secs

mass 1 1.0          # Atoms of type 1 with in Lennard-Jones units
velocity all create 2.5 87287 dist uniform
# Velocity -> temperature 2.5 and seed

pair_style lj/cut 3.0 # Interaction is zero if distance is >3.0 lj
pair_coeff 1 1 1.0 1.0 3.0 # Interaction of atoms type 1 with type 1
# with 1.0 times simga, 1.0 times epsilon value and cutoff 3.0

fix 1 all nve       # Constant number (n) of type 1 atoms
                    # Constant volume of simbox
                    # Constant energy

# Simulation control:
dump 1 all custom 10 dump.lammpstrj id type x y z vx vy vz
thermo 100          # Log every 100 steps
run 10000            # Timesteps
  update every 1 steps, delay 10 steps, check yes
Step Temp E_pair E_mol TotEng Press
0          2.5            0            0    3.7490625   0.02499375
Averages over the last 51 of 101 rows, steps 5000 to 10000:
Temp E_pair E_mol TotEng Press
2.53689 -0.0584722 0 3.74591 0.0252902
Loop time of 11.9523 on 1 procs for 10000 steps with 4000 atoms
